LAMMPS (29 Aug 2024)
# in.caf2_md
units           metal
atom_style      charge
boundary        p p p

read_data       caf2_4x4x4.data
Reading data file ...
  orthogonal box = (0 0 0) to (21.856 21.856 21.856)
  reading atoms ...
  768 atoms

# --- neighbor & electrostatics ---
neighbor        2.0 bin
neigh_modify    delay 0 every 1 check yes
pair_style      buck/coul/long 10.0
kspace_style    pppm 1e-5

# --- types, masses, groups (type 1=Ca, type 2=F) ---
mass            1 40.078        # Ca
mass            2 18.998403     # F
group           mobile type 2   # F- anions (for diffusion)
512 atoms in group mobile

# Buckingham parameters (eV, Å, eV Å^6)
# Ca-Ca: Coulomb only
pair_coeff      1 1  0.0        1.0     0.0
pair_coeff      1 2  797.42     0.3179  0.0
pair_coeff      2 2  1127.7     0.2153  15.83

# --- thermo/ensemble ---
variable        T equal 1000          # set your temperature (K)
timestep        0.001                 # ps = 1 fs
velocity        all create 1000 4928459 mom yes rot yes dist gaussian
fix             npt all npt temp 1000 1000 0.1 iso 0.0 0.0 1.0

# --- analysis: MSD and RDF ---
compute         msdF mobile msd
compute         msd_all all msd

# RDF partials: (Ca-Ca, Ca-F, F-F) out to 10 Å, 200 bins
compute         myrdf all rdf 200 1 1 1 2 2 2
fix             rdfout all ave/time 100 1 100 c_myrdf[*] file rdf.out mode vector

# MSD time series every 100 steps (F-only and all-atoms)
fix             msdout all ave/time 100 1 100 c_msdF[4] c_msd_all[4] file msd.out

thermo_style    custom step temp press pe ke etotal
thermo          100

# Trajectory (with element symbols for viewers)
dump            d1 all custom 200 traj.lammpstrj id type q x y z
dump_modify d1 element Ca F

run             10000

CITE-CITE-CITE-CITE-CITE-CITE-CITE-CITE-CITE-CITE-CITE-CITE-CITE

Your simulation uses code contributions which should be cited:

- Type Label Framework: https://doi.org/10.1021/acs.jpcb.3c08419

@Article{Gissinger24,
 author = {Jacob R. Gissinger, Ilia Nikiforov, Yaser Afshar, Brendon Waters, Moon-ki Choi, Daniel S. Karls, Alexander Stukowski, Wonpil Im, Hendrik Heinz, Axel Kohlmeyer, and Ellad B. Tadmor},
 title = {Type Label Framework for Bonded Force Fields in LAMMPS},
 journal = {J. Phys. Chem. B},
 year =    2024,
 volume =  128,
 number =  13,
 pages =   {3282–-3297}
}

CITE-CITE-CITE-CITE-CITE-CITE-CITE-CITE-CITE-CITE-CITE-CITE-CITE

PPPM initialization ...
  G vector (1/distance) = 0.32876851
  grid = 27 27 27
  stencil order = 5
  estimated absolute RMS force accuracy = 0.0001360082
  estimated relative force accuracy = 9.4452469e-06
  3d grid and FFT values/proc = 39304 19683
Generated 0 of 1 mixed pair_coeff terms from geometric mixing rule
Step          Temp          Press          PotEng         KinEng         TotEng
0   1000          -46300.43      -6966.4796      99.142531     -6867.337
Averages over the last 51 of 101 rows, steps 5000 to 10000:
Temp Press PotEng KinEng TotEng
1003.03 -66.3922 -6871.19 99.4433 -6771.74
Loop time of 29.7464 on 1 procs for 10000 steps with 768 atoms

write_data      caf2_postrun.data
System init for write_data ...
PPPM initialization ...
  G vector (1/distance) = 0.32928335
  grid = 27 27 27
  stencil order = 5
  estimated absolute RMS force accuracy = 0.00013272648
  estimated relative force accuracy = 9.2173437e-06
  3d grid and FFT values/proc = 39304 19683
Generated 0 of 1 mixed pair_coeff terms from geometric mixing rule
